%chk=E:\dft\dp.chk
#p b3lyp/6-31g* opt 

dp

0 1
 N           15.23700000    8.64800000   21.39000000
 C           14.85200000    9.94800000   20.86100000
 C           13.51700000    9.81400000   20.10600000
 O           13.28200000   10.39100000   19.04900000
 C           15.91100000   10.62100000   19.96400000
 C           17.20500000   11.02900000   20.69700000
 C           18.20200000    9.88800000   20.96200000
 O           19.22800000   10.15100000   21.59000000
 O           17.95400000    8.75800000   20.54400000
 H           14.66600000   10.58700000   21.72500000
 H           16.13600000   10.00500000   19.09600000
 H           15.48200000   11.53600000   19.55300000
 H           17.73500000   11.76200000   20.09100000
 H           16.97100000   11.51700000   21.64400000
 H           15.37700000    7.98200000   20.60300000
 H           16.13900000    8.75100000   21.90000000
 H           14.51200000    8.28800000   22.04100000
 N           12.66600000    9.01400000   20.78700000
 C           11.25700000    8.86000000   20.48100000
 C           10.95200000    7.40500000   20.08200000
 O           11.29300000    6.48000000   20.81100000
 H           13.00300000    8.55500000   21.60800000
 H           10.72200000    9.09200000   21.40200000
 H           10.96900000    9.60100000   19.73800000
 N           10.28200000    7.22400000   18.90800000
 C            9.79300000    5.91400000   18.49800000
 C           10.95400000    4.97500000   18.15600000
 O           11.73100000    5.20600000   17.23800000
 C            8.91500000    6.19300000   17.26800000
 C            9.38100000    7.55000000   16.73700000
 C            9.92200000    8.28500000   17.96300000
 H            9.18800000    5.47500000   19.29300000
 H            8.95700000    5.41300000   16.50800000
 H            7.87400000    6.27500000   17.58100000
 H           10.18100000    7.39800000   16.01300000
 H            8.58400000    8.10200000   16.23900000
 H           10.77500000    8.91200000   17.70300000
 H            9.14600000    8.90900000   18.40600000
 N           10.98600000    3.90000000   18.96100000
 C           11.86800000    2.77300000   18.71600000
 C           11.01900000    1.71600000   17.99800000
 O            9.95800000    1.32500000   18.46900000
 C           12.45600000    2.21700000   20.04300000
 C           13.92600000    2.61200000   20.21000000
 C           11.65500000    2.61800000   21.29400000
 H           10.32800000    3.83600000   19.71000000
 H           12.67300000    3.09300000   18.04900000
 H           12.45000000    1.12600000   20.00000000
 H           14.36300000    2.13600000   21.08800000
 H           14.03300000    3.69000000   20.32600000
 H           14.51100000    2.29800000   19.34600000
 H           12.05300000    2.12500000   22.18200000
 H           10.60600000    2.33700000   21.20400000
 H           11.70700000    3.69300000   21.47600000
 N           11.55300000    1.28800000   16.83500000
 C           10.94900000    0.17600000   16.11200000
 C            9.95900000    0.61400000   15.02100000
 O            9.32900000   -0.22800000   14.39300000
 H           12.39900000    1.69900000   16.49500000
 H           11.77200000   -0.36600000   15.64600000
 H           10.45900000   -0.49800000   16.81700000
 N            9.87500000    1.95100000   14.80800000
 C            9.19000000    2.49600000   13.63100000
 C           10.17700000    3.20000000   12.68600000
 O            9.94400000    3.26000000   11.48600000
 C            8.06600000    3.48900000   14.01500000
 C            6.61900000    2.94700000   13.98700000
 C            6.17200000    2.42800000   15.35500000
 C            6.35000000    1.92300000   12.87200000
 H           10.35400000    2.58300000   15.41600000
 H            8.80100000    1.66600000   13.04800000
 H            8.28100000    3.93600000   14.98500000
 H            8.07600000    4.33200000   13.32500000
 H            5.97900000    3.80300000   13.76900000
 H            5.12900000    2.11100000   15.32700000
 H            6.25400000    3.21100000   16.11000000
 H            6.77700000    1.58100000   15.67700000
 H            5.28100000    1.75200000   12.74700000
 H            6.79900000    0.95500000   13.10000000
 H            6.74400000    2.26400000   11.91400000
 N           11.27000000    3.72000000   13.27700000
 C           12.32900000    4.33200000   12.48000000
 C           13.66900000    3.87000000   13.06800000
 O           13.75700000    2.81000000   13.67800000
 C           12.14100000    5.85700000   12.54500000
 H           11.38500000    3.65700000   14.26800000
 H           12.26800000    3.97300000   11.45000000
 H           12.85300000    6.39100000   11.91600000
 H           12.25000000    6.22200000   13.56600000
 H           11.14300000    6.13700000   12.20600000
 N           14.68700000    4.73400000   12.87000000
 C           15.95500000    4.60000000   13.57200000
 C           15.91900000    5.61400000   14.73400000
 O           15.74100000    6.80300000   14.49700000
 C           17.10300000    4.94700000   12.61200000
 C           18.47300000    4.67000000   13.25000000
 O           19.22300000    5.61700000   13.48200000
 O           18.77000000    3.50700000   13.51100000
 H           14.55000000    5.53600000   12.28900000
 H           16.05000000    3.56700000   13.90700000
 H           17.02500000    4.36500000   11.69400000
 H           17.05300000    5.99800000   12.33300000
 N           16.07900000    5.12300000   15.99600000
 C           15.96200000    5.98900000   17.17100000
 C           17.07000000    7.03300000   17.33300000
 O           16.89600000    8.02500000   18.02400000
 C           15.97600000    5.01000000   18.35000000
 C           16.71500000    3.77700000   17.82900000
 C           16.38500000    3.73300000   16.33600000
 H           15.01300000    6.51700000   17.15100000
 H           16.42000000    5.41600000   19.26000000
 H           14.94700000    4.73600000   18.58300000
 H           17.78800000    3.92300000   17.95800000
 H           16.44300000    2.86000000   18.35000000
 H           17.22900000    3.35300000   15.76000000
 H           15.51000000    3.11100000   16.14600000
 N           18.18900000    6.75800000   16.64100000
 C           19.37500000    7.60000000   16.71500000
 C           19.56800000    8.23400000   15.33100000
 O           18.66200000    8.88200000   14.81800000
 C           20.59100000    6.84400000   17.28000000
 C           21.77500000    7.76600000   17.63700000
 C           23.02500000    6.97200000   18.01500000
 C           24.26600000    7.85900000   18.15800000
 N           25.39900000    7.10100000   18.66000000
 H           18.23100000    5.94000000   16.06700000
 H           19.16000000    8.42500000   17.39700000
 H           20.90200000    6.06100000   16.58700000
 H           20.29200000    6.34300000   18.20100000
 H           22.02700000    8.44300000   16.82600000
 H           21.49000000    8.41000000   18.47000000
 H           22.80600000    6.46600000   18.95000000
 H           23.22500000    6.19000000   17.28200000
 H           24.55900000    8.28000000   17.19600000
 H           24.09100000    8.68800000   18.84500000
 H           26.23600000    7.71400000   18.72500000
 H           25.16600000    6.72700000   19.60400000
 H           25.59400000    6.30900000   18.01600000
 N           20.78200000    8.05400000   14.77300000
 C           21.16900000    8.83900000   13.61800000
 C           21.53900000   10.24100000   14.11200000
 O           20.68900000   11.12400000   14.13900000
 H           21.45100000    7.44600000   15.20000000
 H           21.98800000    8.32500000   13.12100000
 H           20.32600000    8.88800000   12.92600000
 N           22.82800000   10.42900000   14.52800000
 C           23.26700000   11.72400000   15.03900000
 C           23.14700000   12.74300000   13.90400000
 O           23.77600000   12.59300000   12.86400000
 C           24.71500000   11.49100000   15.49200000
 C           25.17200000   10.23700000   14.74100000
 C           23.89900000    9.43500000   14.46100000
 H           22.64600000   12.02700000   15.88300000
 H           25.37100000   12.34700000   15.32500000
 H           24.72300000   11.28400000   16.56300000
 H           25.59800000   10.53600000   13.78700000
 H           25.92800000    9.66500000   15.28000000
 H           23.96200000    8.96800000   13.47800000
 H           23.73000000    8.66200000   15.20700000
 N           22.27400000   13.73900000   14.17900000
 C           21.91800000   14.81200000   13.25300000
 C           20.65300000   14.45300000   12.46600000
 O           20.35500000   13.29500000   12.20500000
 C           23.02700000   15.20400000   12.27000000
 H           21.82700000   13.72900000   15.07300000
 H           21.69900000   15.66000000   13.90300000
 H           22.83400000   16.18100000   11.82600000
 H           23.13300000   14.48800000   11.45400000
 H           23.97400000   15.25100000   12.79000000
 N           19.96100000   15.54500000   12.08800000
 C           18.87200000   15.50000000   11.12800000
 C           18.79300000   16.85000000   10.39100000
 O           17.91400000   17.66900000   10.63100000
 C           17.51600000   15.31700000   11.87800000
 C           16.22700000   15.08000000   11.02000000
 C           15.12300000   14.34500000   11.81400000
 C           15.60200000   16.34500000   10.39100000
 H           20.26300000   16.43600000   12.41500000
 H           19.05600000   14.69200000   10.41800000
 H           17.64800000   14.47000000   12.54900000
 H           17.34800000   16.17700000   12.53100000
 H           16.51300000   14.44000000   10.19200000
 H           14.15100000   14.42600000   11.32400000
 H           15.33400000   13.28100000   11.90200000
 H           14.99700000   14.75200000   12.81700000
 H           14.57600000   16.17500000   10.06200000
 H           15.56700000   17.18100000   11.09000000
 H           16.14500000   16.64800000    9.49600000
 N           19.75400000   16.99200000    9.44800000
 C           19.69600000   18.04800000    8.43600000
 C           20.08000000   17.45100000    7.06800000
 O           21.24700000   17.46100000    6.69200000
 C           20.69900000   19.17400000    8.72900000
 H           20.47300000   16.30100000    9.38700000
 H           18.70200000   18.48700000    8.41900000
 H           20.88900000   19.79000000    7.85000000
 H           21.66100000   18.78200000    9.06100000
 H           20.30900000   19.85300000    9.48200000
 N           19.04500000   16.93300000    6.33700000
 C           19.21300000   16.32600000    5.01400000
 C           19.83200000   17.31100000    4.00600000
 O           21.04700000   17.43800000    3.90900000
 C           17.82500000   15.79300000    4.59400000
 C           16.84100000   16.49300000    5.52400000
 C           17.64400000   16.86200000    6.77800000
 H           19.90500000   15.48700000    5.09700000
 H           17.57000000   15.92600000    3.54200000
 H           17.76000000   14.72100000    4.74300000
 H           16.50300000   17.39600000    5.02100000
 H           15.95900000   15.89200000    5.74500000
 H           17.27200000   17.80100000    7.18100000
 H           17.54900000   16.08400000    7.53800000
 N           18.91600000   17.97900000    3.27500000
 C           19.23200000   19.06500000    2.36900000
 C           19.76700000   18.52300000    1.06700000
 O           20.73700000   17.56400000    1.05100000
 C           19.99600000   20.17800000    3.11500000
 C           20.20400000   21.47400000    2.32600000
 C           18.89300000   22.01600000    1.75100000
 C           20.87300000   22.53400000    3.21600000
 H           17.94800000   17.76700000    3.40100000
 H           18.23500000   19.44800000    2.15700000
 H           19.44300000   20.41400000    4.02500000
 H           20.96900000   19.82400000    3.45000000
 H           20.87000000   21.24200000    1.50000000
 H           19.04700000   22.95600000    1.22700000
 H           18.18600000   22.19700000    2.55800000
 H           18.44100000   21.32800000    1.03700000
 H           20.98800000   23.48600000    2.70100000
 H           21.86400000   22.20800000    3.53100000
 H           20.27900000   22.72600000    4.11000000
 H           20.95600000   17.33100000    0.16000000
 N           19.02400000   18.75300000   -0.18800000
 C           18.34500000   17.64400000   -0.85600000
 C           16.83700000   17.90300000   -0.91600000
 O           16.34300000   18.73600000   -1.66500000
 H           18.92800000   19.68300000   -0.54600000
 H           18.75400000   17.57700000   -1.86400000
 H           18.55500000   16.71900000   -0.31800000
 N           16.16300000   17.15700000   -0.01200000
 C           14.86500000   17.53300000    0.53700000
 C           14.95200000   18.99100000    1.07700000
 O           15.70400000   19.24900000    2.00900000
 C           14.51400000   16.58200000    1.68800000
 H           16.65500000   16.40800000    0.43000000
 H           14.14700000   17.40100000   -0.26700000
 H           13.53700000   16.81800000    2.11000000
 H           15.24900000   16.63400000    2.49300000
 H           14.48200000   15.55200000    1.33500000
 N           14.20300000   19.93300000    0.41900000
 C           14.51900000   21.36800000    0.44300000
 C           14.68400000   22.00000000    1.84100000
 C           13.36600000   22.05000000   -0.32100000
 C           12.59700000   20.94500000   -1.04600000
 C           13.11700000   19.61200000   -0.50800000
 O           13.69800000   22.11000000    2.56000000
 O           15.79200000   22.38800000    2.19700000
 H           15.44600000   21.51000000   -0.11600000
 H           12.67500000   22.57100000    0.34200000
 H           13.73800000   22.80500000   -1.00900000
 H           11.52300000   21.04300000   -0.88200000
 H           12.77300000   21.00400000   -2.11900000
 H           12.33600000   19.05200000    0.00700000
 H           13.48500000   19.02100000   -1.34600000











































































































































































































































































