%chk=E:\dft\wild.chk
#p b3lyp/6-31g* opt

wild

0 2
 N           11.24200000   16.78300000    1.77300000
 C           11.16900000   17.62500000    0.58700000
 C           10.99700000   19.09500000    0.96500000
 O           11.33400000   19.49600000    2.08100000
 C           10.02300000   17.18300000   -0.32400000
 C           10.38800000   17.16400000   -1.80000000
 C           10.26800000   18.52400000   -2.46900000
 O           11.29900000   19.21900000   -2.62000000
 O            9.13400000   18.90200000   -2.83500000
 H           11.31700000   18.75700000    2.70800000
 H            8.92200000   19.81400000   -2.83700000
 H           10.35300000   16.90800000    2.35400000
 H           12.09300000   17.06400000    2.35800000
 H           11.33500000   15.75900000    1.47800000
 H           12.10400000   17.52100000    0.03600000
 H            9.71900000   16.17800000   -0.03200000
 H            9.18800000   17.87000000   -0.18500000
 H           11.41800000   16.82100000   -1.89700000
 H            9.72300000   16.46800000   -2.31100000
 N           11.62800000   19.97500000    0.26000000
 C           12.64700000   20.99500000    0.49200000
 C           14.01300000   20.41600000    0.79700000
 O           14.18000000   19.19700000    0.86300000
 H           11.32300000   19.94900000   -0.76500000
 H           12.72500000   21.61500000   -0.40100000
 H           12.33500000   21.61000000    1.33600000
 N           15.09000000   21.09200000    0.48800000
 C           16.44500000   20.53900000    0.55400000
 C           16.75500000   19.89900000    1.90600000
 O           16.29800000   20.38700000    2.94100000
 C           17.33400000   21.75800000    0.30700000
 C           16.46000000   22.93500000    0.59800000
 C           15.02700000   22.49500000    0.52000000
 H           16.58700000   19.80900000   -0.24300000
 H           18.19600000   21.74600000    0.97400000
 H           17.67500000   21.78000000   -0.72800000
 H           16.67400000   23.31400000    1.59700000
 H           16.64400000   23.72000000   -0.13600000
 H           14.47200000   22.83600000    1.39400000
 H           14.55500000   22.88000000   -0.38400000
 N           16.82200000   18.58400000    1.90800000
 C           17.30000000   17.79300000    3.03600000
 C           18.82800000   17.83700000    3.08700000
 O           19.48700000   17.93900000    2.05100000
 C           16.81300000   16.32900000    2.95100000
 C           18.00100000   15.36800000    2.87800000
 C           15.92400000   15.99300000    4.14000000
 H           16.50600000   18.06400000    1.02800000
 H           16.91200000   18.23300000    3.95500000
 H           16.22500000   16.21600000    2.04000000
 H           17.63600000   14.34300000    2.81900000
 H           18.61700000   15.48300000    3.77000000
 H           18.59700000   15.59300000    1.99300000
 H           15.59000000   14.95800000    4.06400000
 H           15.05800000   16.65400000    4.14500000
 H           16.48700000   16.12500000    5.06400000
 N           19.36400000   18.53400000    4.09200000
 C           20.79000000   18.54400000    4.36100000
 C           21.26600000   17.30900000    5.10700000
 O           21.70900000   16.33800000    4.48700000
 H           18.71800000   19.10700000    4.72400000
 H           21.32100000   18.60100000    3.41100000
 H           21.02300000   19.42300000    4.96200000
 N           21.97000000   17.50800000    6.22700000
 C           22.30800000   16.42700000    7.14900000
 C           21.70200000   16.67900000    8.52500000
 O           21.86900000   17.75900000    9.09500000
 C           23.82800000   16.27900000    7.26700000
 C           24.66600000   17.42500000    6.70400000
 C           25.97800000   16.89900000    6.13200000
 C           24.92900000   18.47100000    7.78100000
 H           22.30000000   18.50000000    6.45600000
 H           21.89900000   15.49600000    6.75600000
 H           24.07100000   16.17900000    8.32500000
 H           24.11500000   15.36900000    6.74100000
 H           24.10500000   17.89700000    5.89700000
 H           26.56100000   17.73000000    5.73600000
 H           25.76800000   16.18900000    5.33200000
 H           26.54400000   16.40100000    6.91900000
 H           25.52700000   19.28100000    7.36300000
 H           25.46800000   18.01200000    8.61000000
 H           23.98000000   18.86900000    8.14100000
 N           20.57600000   16.00100000    8.83200000
 C           19.96300000   16.06300000   10.15700000
 C           20.63700000   15.08600000   11.11700000
 O           21.86700000   15.02300000   11.18600000
 C           18.46800000   15.76600000   10.06500000
 H           20.11500000   15.39800000    8.07800000
 H           20.09000000   17.07300000   10.54800000
 H           18.02500000   15.81600000   11.06000000
 H           18.32000000   14.76800000    9.65200000
 H           17.99000000   16.50200000    9.41800000
 N           19.95000000   14.76200000   12.19900000
 C           20.28700000   13.65200000   13.08300000
 C           19.03600000   13.06700000   13.73700000
 O           18.19100000   13.80800000   14.24400000
 C           21.27500000   14.10800000   14.15900000
 C           22.48700000   13.19600000   14.27400000
 O           23.41100000   13.33000000   13.44100000
 O           22.52700000   12.34600000   15.19100000
 H           19.09100000   15.35200000   12.44100000
 H           23.30100000   11.83500000   15.32300000
 H           20.76200000   12.87100000   12.48900000
 H           21.61800000   15.11300000   13.91300000
 H           20.76000000   14.12500000   15.11900000
 N           18.77300000   11.76200000   13.59200000
 C           17.54500000   11.13700000   14.09100000
 C           17.38200000   11.27100000   15.59900000
 O           16.37900000   11.81300000   16.07200000
 C           17.71200000    9.66600000   13.68700000
 C           19.18300000    9.48300000   13.50100000
 C           19.78200000   10.80600000   13.10700000
 H           16.67900000   11.56400000   13.58500000
 H           17.34000000    9.00800000   14.47300000
 H           17.18000000    9.46100000   12.75800000
 H           19.63200000    9.13900000   14.43300000
 H           19.36600000    8.74800000   12.71700000
 H           20.74400000   10.96500000   13.59500000
 H           19.90600000   10.87700000   12.02600000
 N           18.38600000   10.85000000   16.34500000
 C           18.21400000   10.91700000   17.79700000
 C           19.55900000   11.09100000   18.49900000
 O           19.63400000   11.69700000   19.56900000
 C           17.50900000    9.66200000   18.31400000
 C           18.40200000    8.43100000   18.29200000
 O           18.66900000    7.85900000   19.37000000
 O           18.85100000    8.04100000   17.19200000
 H           19.28800000   10.47500000   15.90700000
 H           19.41000000    8.60000000   16.68900000
 H           17.59100000   11.78100000   18.02900000
 H           17.18900000    9.84100000   19.34000000
 H           16.63700000    9.47000000   17.68900000
 N           20.53000000   10.60700000   17.92500000
 C           21.85300000   10.62100000   18.53400000
 C           22.91800000    9.98400000   17.66300000
 O           23.87400000   10.64500000   17.25600000
 H           20.40200000   10.16500000   16.95800000
 H           22.13500000   11.65600000   18.72500000
 H           21.80600000   10.07700000   19.47700000
 N           23.16000000    8.69100000   17.90800000
 C           24.29100000    8.09100000   17.19800000
 C           24.30000000    8.42800000   15.70800000
 O           25.29000000    8.16900000   15.02100000
 C           24.09200000    6.59000000   17.41800000
 C           22.62900000    6.43400000   17.68400000
 C           22.11700000    7.70800000   18.29200000
 H           25.22700000    8.41100000   17.65600000
 H           24.38200000    6.03000000   16.52900000
 H           24.67600000    6.24600000   18.27200000
 H           22.10400000    6.23600000   16.74900000
 H           22.46700000    5.60600000   18.37400000
 H           21.14700000    7.98100000   17.87600000
 H           22.03700000    7.62200000   19.37600000
 N           23.05300000    8.45300000   15.13200000
 C           22.81000000    8.82500000   13.73900000
 C           22.82700000    7.59600000   12.83300000
 O           23.25900000    7.67200000   11.68000000
 C           23.84500000    9.84200000   13.27100000
 H           22.21200000    8.18400000   15.73800000
 H           21.82400000    9.28500000   13.67400000
 H           23.65000000   10.10800000   12.23200000
 H           24.84200000    9.41000000   13.35400000
 H           23.78400000   10.73600000   13.89200000
 N           23.24200000    6.40300000   13.36100000
 C           23.13600000    5.16400000   12.59900000
 C           21.77100000    4.51200000   12.79200000
 O           21.29700000    3.77900000   11.92100000
 C           24.23900000    4.18900000   13.00500000
 O           23.90300000    2.86300000   12.63200000
 H           23.65100000    6.37900000   14.35000000
 H           24.76800000    2.26800000   12.63700000
 H           23.25800000    5.39900000   11.54200000
 H           25.16800000    4.47400000   12.51100000
 H           24.37400000    4.23300000   14.08600000
 N           21.44100000    4.04700000   14.05600000
 C           20.11700000    3.56500000   14.43700000
 C           19.26500000    4.69500000   15.00700000
 O           19.71000000    5.43200000   15.89400000
 C           20.23700000    2.43200000   15.45200000
 H           22.20900000    4.04000000   14.80200000
 H           19.62300000    3.17800000   13.54600000
 H           19.24200000    2.08300000   15.72700000
 H           20.75300000    2.79400000   16.34100000
 H           20.80200000    1.60900000   15.01400000
 N           18.24300000    5.01500000   14.16200000
 C           17.29400000    6.05600000   14.56300000
 C           16.75400000    5.85000000   15.97600000
 O           16.10100000    6.74300000   16.52700000
 C           16.17700000    5.93400000   13.52700000
 C           16.55900000    4.75400000   12.68900000
 C           17.86000000    4.20600000   13.20600000
 H           17.76500000    7.03600000   14.48600000
 H           15.21800000    5.76300000   14.01500000
 H           16.11900000    6.83500000   12.91700000
 H           15.78500000    3.98900000   12.75600000
 H           16.67700000    5.06300000   11.65000000
 H           17.71700000    3.19900000   13.59800000
 H           18.60400000    4.18400000   12.40900000
 N           16.29200000    4.59400000   16.36200000
 C           15.93500000    4.23700000   17.73300000
 C           14.51100000    4.66900000   18.05500000
 O           14.29300000    5.77600000   18.55700000
 C           16.91400000    4.87600000   18.72400000
 C           17.85600000    3.91900000   19.45700000
 C           17.67600000    2.49800000   18.93300000
 C           19.30300000    4.37000000   19.30100000
 H           16.19300000    3.84400000   15.60600000
 H           15.11900000    6.28300000   18.59300000
 H           15.99800000    3.15400000   17.83500000
 H           17.52700000    5.58800000   18.17200000
 H           16.32800000    5.40600000   19.47500000
 H           17.60300000    3.93100000   20.51700000
 H           18.35200000    1.82700000   19.46300000
 H           17.90100000    2.47200000   17.86700000
 H           16.64700000    2.17800000   19.09500000
 H           19.95900000    3.67800000   19.82900000
 H           19.41900000    5.37000000   19.71900000
 H           19.56700000    4.38500000   18.24400000
 N           13.60900000    4.58500000   17.04500000
 C           12.26300000    4.03700000   16.99800000
 C           11.20700000    4.99700000   17.50900000
 O           10.23600000    5.29400000   16.81000000
 H           13.94900000    4.99500000   16.11600000
 H           12.02900000    3.78300000   15.96400000
 H           12.23500000    3.13500000   17.60900000
 N           10.88300000    4.82000000   18.76000000
 C           10.50800000    5.71400000   19.85300000
 C           11.71900000    6.45900000   20.40700000
 O           12.64400000    5.83200000   20.93700000
 C            9.81900000    4.92700000   20.96700000
 H           10.89400000    3.79000000   19.05000000
 H            9.80200000    6.44900000   19.46700000
 H            9.54500000    5.60500000   21.77500000
 H           10.49900000    4.16500000   21.34800000
 H            8.92200000    4.44900000   20.57400000
 N           11.75300000    7.82000000   19.99800000
 C           12.89800000    8.73000000   19.98200000
 C           13.94400000    8.38100000   21.04400000
 O           15.07200000    8.02700000   20.70500000
 C           12.27100000   10.09900000   20.26400000
 C           10.81400000    9.81700000   20.43900000
 C           10.59900000    8.33600000   20.39000000
 O           13.65800000    8.45200000   22.23800000
 H           14.24800000    8.86400000   22.83800000
 H           13.35800000    8.72900000   18.99400000
 H           12.69000000   10.53500000   21.17100000
 H           12.43400000   10.77700000   19.42600000
 H           10.47900000   10.20400000   21.40200000
 H           10.25000000   10.29500000   19.63800000
 H           10.32900000    7.95800000   21.37600000
 H            9.81100000    8.09000000   19.67800000






























































































































































































































































